/*--------------------------------*- C++ -*----------------------------------*\
| =========                 |                                                 |
| \\      /  F ield         | OpenFOAM: The Open Source CFD Toolbox           |
|  \\    /   O peration     | Version:  v2106                                 |
|   \\  /    A nd           | Website:  www.openfoam.com                      |
|    \\/     M anipulation  |                                                 |
\*---------------------------------------------------------------------------*/
FoamFile
{
    version     2.0;
    format      ascii;
    class       dictionary;
    object      fvSolution;
}
// * * * * * * * * * * * * * * * * * * * * * * * * * * * * * * * * * * * * * //

solvers
{
    alpha.water
    {

        advectionScheme isoAdvection;

	    reconstructionScheme plicRDF;

		vof2IsoTol 1e-8;
		surfCellTol 1e-6;
		writeVTK false;


        isoFaceTol      1e-8;
        surfCellTol     1e-8;
        nAlphaBounds    3;
        snapTol         1e-6;
        clip            true;

        nAlphaSubCycles 2;
        nAlphaCorr 1;
        cAlpha          1;
        writeIsoFaces false;

    }

    "pcorr.*"
    {
        solver          PCG;
        preconditioner  DIC;
        tolerance       1e-10;
        relTol          0;
    }

    p_rgh
    {
        solver          GAMG;
        tolerance       1e-09;
        relTol          0.001;
        smoother        DIC;
        minIter 2;
    }

    p_rghFinal
    {
        solver          PCG;
        preconditioner
        {
            preconditioner  GAMG;
            tolerance       1e-07;
            relTol          0;
            nVcycles        2;
            smoother        DICGaussSeidel;
            nPreSweeps      2;
        }
        tolerance       1e-10;
        relTol          0;
        maxIter         100;
    }

    U
    {
        solver          PBiCGStab;
        preconditioner  DILU;
        tolerance       1e-20;
        relTol          0;
        minIter 5;
    }

    UFinal
    {
        solver          PBiCGStab;
        preconditioner  DILU;
        tolerance       1e-10;
        relTol          0;
        minIter 5;
    }
}

PIMPLE
{
    momentumPredictor yes;
    nCorrectors      4;
    nNonOrthogonalCorrectors 0;
    correctPhi      no;
}

// ************************************************************************* //
